FoamFile
{
    format      ascii;
    class       dictionary;
    object      physicalProperties;
}

viscosityModel  constant;
nu              4.780000e-07;
