*HEADING
R4 gradient thermal rpm=24000.0
*NODE
1, 52.950000, 0.000000, 0.000000
2, 58.533333, 0.000000, 0.000000
3, 64.116667, 0.000000, 0.000000
4, 69.700000, 0.000000, 0.000000
5, 51.145773, 13.704468, 0.000000
6, 56.538858, 15.149541, 0.000000
7, 61.931944, 16.594614, 0.000000
8, 67.325030, 18.039687, 0.000000
9, 45.856045, 26.475000, 0.000000
10, 50.691354, 29.266667, 0.000000
11, 55.526662, 32.058333, 0.000000
12, 60.361971, 34.850000, 0.000000
13, 37.441304, 37.441304, 0.000000
14, 41.389317, 41.389317, 0.000000
15, 45.337330, 45.337330, 0.000000
16, 49.285343, 49.285343, 0.000000
17, 26.475000, 45.856045, 0.000000
18, 29.266667, 50.691354, 0.000000
19, 32.058333, 55.526662, 0.000000
20, 34.850000, 60.361971, 0.000000
** ... 36 like lines cut
*ELEMENT, TYPE=C3D8, ELSET=SOLID
1, 1, 2, 6, 5, 29, 30, 34, 33
2, 2, 3, 7, 6, 30, 31, 35, 34
3, 3, 4, 8, 7, 31, 32, 36, 35
4, 5, 6, 10, 9, 33, 34, 38, 37
5, 6, 7, 11, 10, 34, 35, 39, 38
6, 7, 8, 12, 11, 35, 36, 40, 39
7, 9, 10, 14, 13, 37, 38, 42, 41
8, 10, 11, 15, 14, 38, 39, 43, 42
9, 11, 12, 16, 15, 39, 40, 44, 43
10, 13, 14, 18, 17, 41, 42, 46, 45
11, 14, 15, 19, 18, 42, 43, 47, 46
12, 15, 16, 20, 19, 43, 44, 48, 47
13, 17, 18, 22, 21, 45, 46, 50, 49
14, 18, 19, 23, 22, 46, 47, 51, 50
15, 19, 20, 24, 23, 47, 48, 52, 51
16, 21, 22, 26, 25, 49, 50, 54, 53
17, 22, 23, 27, 26, 50, 51, 55, 54
18, 23, 24, 28, 27, 51, 52, 56, 55
*NSET, NSET=SYM0
1, 2, 3, 4, 29, 30, 31, 32
*NSET, NSET=SYM90
25, 26, 27, 28, 53, 54, 55, 56
*NSET, NSET=FIXZ
1, 2, 3, 4, 5, 6, 7, 8, 9, 10, 11, 12, 13, 14, 15, 16
17, 18, 19, 20, 21, 22, 23, 24, 25, 26, 27, 28
*NSET, NSET=ALLN
1, 2, 3, 4, 5, 6, 7, 8, 9, 10, 11, 12, 13, 14, 15, 16
17, 18, 19, 20, 21, 22, 23, 24, 25, 26, 27, 28, 29, 30, 31, 32
33, 34, 35, 36, 37, 38, 39, 40, 41, 42, 43, 44, 45, 46, 47, 48
49, 50, 51, 52, 53, 54, 55, 56
*MATERIAL, NAME=Steel
*ELASTIC
210000.0, 0.300
*DENSITY
7.810000e-09
*SOLID SECTION, ELSET=SOLID, MATERIAL=Steel
*BOUNDARY
SYM0, 2, 2
SYM90, 1, 1
FIXZ, 3, 3
*STEP
*STATIC
*DLOAD
SOLID, CENTRIF, 6.316547e+06, 0., 0., 0., 0., 0., 1.
*EL PRINT, ELSET=SOLID
S
*END STEP
