*HEADING
R4 dense centrif_only rpm=24000.0 nr=8 nth=16 nz=4
*NODE
1, 52.950000, 0.000000, 0.000000
2, 55.043750, 0.000000, 0.000000
3, 57.137500, 0.000000, 0.000000
4, 59.231250, 0.000000, 0.000000
5, 61.325000, 0.000000, 0.000000
6, 63.418750, 0.000000, 0.000000
7, 65.512500, 0.000000, 0.000000
8, 67.606250, 0.000000, 0.000000
9, 69.700000, 0.000000, 0.000000
10, 52.695031, 5.190008, 0.000000
11, 54.778699, 5.395231, 0.000000
12, 56.862367, 5.600454, 0.000000
13, 58.946035, 5.805678, 0.000000
14, 61.029703, 6.010901, 0.000000
15, 63.113371, 6.216125, 0.000000
16, 65.197039, 6.421348, 0.000000
17, 67.280707, 6.626571, 0.000000
18, 69.364375, 6.831795, 0.000000
19, 51.932581, 10.330033, 0.000000
20, 53.986100, 10.738503, 0.000000
** ... 745 like lines cut
*ELEMENT, TYPE=C3D8, ELSET=SOLID
1, 1, 2, 11, 10, 154, 155, 164, 163
2, 2, 3, 12, 11, 155, 156, 165, 164
3, 3, 4, 13, 12, 156, 157, 166, 165
4, 4, 5, 14, 13, 157, 158, 167, 166
5, 5, 6, 15, 14, 158, 159, 168, 167
6, 6, 7, 16, 15, 159, 160, 169, 168
7, 7, 8, 17, 16, 160, 161, 170, 169
8, 8, 9, 18, 17, 161, 162, 171, 170
9, 10, 11, 20, 19, 163, 164, 173, 172
10, 11, 12, 21, 20, 164, 165, 174, 173
11, 12, 13, 22, 21, 165, 166, 175, 174
12, 13, 14, 23, 22, 166, 167, 176, 175
13, 14, 15, 24, 23, 167, 168, 177, 176
14, 15, 16, 25, 24, 168, 169, 178, 177
15, 16, 17, 26, 25, 169, 170, 179, 178
16, 17, 18, 27, 26, 170, 171, 180, 179
17, 19, 20, 29, 28, 172, 173, 182, 181
18, 20, 21, 30, 29, 173, 174, 183, 182
19, 21, 22, 31, 30, 174, 175, 184, 183
20, 22, 23, 32, 31, 175, 176, 185, 184
** ... 492 like lines cut
*NSET, NSET=SYM0
1, 154, 307, 460, 613, 2, 155, 308, 461, 614, 3, 156, 309, 462, 615, 4
157, 310, 463, 616, 5, 158, 311, 464, 617, 6, 159, 312, 465, 618, 7, 160
313, 466, 619, 8, 161, 314, 467, 620, 9, 162, 315, 468, 621
*NSET, NSET=SYM90
145, 298, 451, 604, 757, 146, 299, 452, 605, 758, 147, 300, 453, 606, 759, 148
301, 454, 607, 760, 149, 302, 455, 608, 761, 150, 303, 456, 609, 762, 151, 304
457, 610, 763, 152, 305, 458, 611, 764, 153, 306, 459, 612, 765
*NSET, NSET=FIXZ
1, 10, 19, 28, 37, 46, 55, 64, 73, 82, 91, 100, 109, 118, 127, 136
145, 2, 11, 20, 29, 38, 47, 56, 65, 74, 83, 92, 101, 110, 119, 128
137, 146, 3, 12, 21, 30, 39, 48, 57, 66, 75, 84, 93, 102, 111, 120
129, 138, 147, 4, 13, 22, 31, 40, 49, 58, 67, 76, 85, 94, 103, 112
121, 130, 139, 148, 5, 14, 23, 32, 41, 50, 59, 68, 77, 86, 95, 104
113, 122, 131, 140, 149, 6, 15, 24, 33, 42, 51, 60, 69, 78, 87, 96
105, 114, 123, 132, 141, 150, 7, 16, 25, 34, 43, 52, 61, 70, 79, 88
97, 106, 115, 124, 133, 142, 151, 8, 17, 26, 35, 44, 53, 62, 71, 80
89, 98, 107, 116, 125, 134, 143, 152, 9, 18, 27, 36, 45, 54, 63, 72
81, 90, 99, 108, 117, 126, 135, 144, 153
*NSET, NSET=ALLN
1, 2, 3, 4, 5, 6, 7, 8, 9, 10, 11, 12, 13, 14, 15, 16
17, 18, 19, 20, 21, 22, 23, 24, 25, 26, 27, 28, 29, 30, 31, 32
33, 34, 35, 36, 37, 38, 39, 40, 41, 42, 43, 44, 45, 46, 47, 48
49, 50, 51, 52, 53, 54, 55, 56, 57, 58, 59, 60, 61, 62, 63, 64
65, 66, 67, 68, 69, 70, 71, 72, 73, 74, 75, 76, 77, 78, 79, 80
81, 82, 83, 84, 85, 86, 87, 88, 89, 90, 91, 92, 93, 94, 95, 96
97, 98, 99, 100, 101, 102, 103, 104, 105, 106, 107, 108, 109, 110, 111, 112
113, 114, 115, 116, 117, 118, 119, 120, 121, 122, 123, 124, 125, 126, 127, 128
129, 130, 131, 132, 133, 134, 135, 136, 137, 138, 139, 140, 141, 142, 143, 144
145, 146, 147, 148, 149, 150, 151, 152, 153, 154, 155, 156, 157, 158, 159, 160
161, 162, 163, 164, 165, 166, 167, 168, 169, 170, 171, 172, 173, 174, 175, 176
177, 178, 179, 180, 181, 182, 183, 184, 185, 186, 187, 188, 189, 190, 191, 192
193, 194, 195, 196, 197, 198, 199, 200, 201, 202, 203, 204, 205, 206, 207, 208
209, 210, 211, 212, 213, 214, 215, 216, 217, 218, 219, 220, 221, 222, 223, 224
225, 226, 227, 228, 229, 230, 231, 232, 233, 234, 235, 236, 237, 238, 239, 240
241, 242, 243, 244, 245, 246, 247, 248, 249, 250, 251, 252, 253, 254, 255, 256
257, 258, 259, 260, 261, 262, 263, 264, 265, 266, 267, 268, 269, 270, 271, 272
273, 274, 275, 276, 277, 278, 279, 280, 281, 282, 283, 284, 285, 286, 287, 288
289, 290, 291, 292, 293, 294, 295, 296, 297, 298, 299, 300, 301, 302, 303, 304
305, 306, 307, 308, 309, 310, 311, 312, 313, 314, 315, 316, 317, 318, 319, 320
** ... 28 like lines cut
*MATERIAL, NAME=Steel
*ELASTIC
210000.0, 0.300
*DENSITY
7.810000e-09
*EXPANSION
1.200000e-05
*SOLID SECTION, ELSET=SOLID, MATERIAL=Steel
*BOUNDARY
SYM0, 2, 2
SYM90, 1, 1
FIXZ, 3, 3
*INITIAL CONDITIONS, TYPE=TEMPERATURE
ALLN, 20.000
*STEP
*STATIC
*DLOAD
SOLID, CENTRIF, 6.316547e+06, 0., 0., 0., 0., 0., 1.
*TEMPERATURE
1, 20.0000
2, 20.0000
3, 20.0000
4, 20.0000
5, 20.0000
6, 20.0000
7, 20.0000
8, 20.0000
9, 20.0000
10, 20.0000
11, 20.0000
12, 20.0000
13, 20.0000
14, 20.0000
15, 20.0000
16, 20.0000
17, 20.0000
18, 20.0000
19, 20.0000
20, 20.0000
** ... 745 like lines cut
*EL PRINT, ELSET=SOLID
S
*END STEP
